8y7t
  PyMOL2.3          3D                             0

 28 30  0  0  0  0  0  0  0  0999 V2000
   -9.1710   -2.8890    0.4900 O   0  0  0  0  0  0  0  0  0  0  0  0
  -10.2660   -2.6300    0.1370 C   0  0  0  0  0  0  0  0  0  0  0  0
  -11.4130   -2.9850    1.0340 C   0  0  0  0  0  0  0  0  0  0  0  0
  -11.2200   -3.6610    2.3910 C   0  0  0  0  0  0  0  0  0  0  0  0
  -10.8710   -4.8590    2.4260 N   0  0  0  0  0  0  0  0  0  0  0  0
  -12.7580   -2.6880    0.6220 N   0  0  0  0  0  0  0  0  0  0  0  0
  -13.0100   -2.0510   -0.6150 N   0  0  0  0  0  0  0  0  0  0  0  0
  -14.3930   -1.8100   -0.9200 C   0  0  0  0  0  0  0  0  0  0  0  0
  -15.1040   -0.8280   -0.2480 C   0  0  0  0  0  0  0  0  0  0  0  0
  -16.4380   -0.6340   -0.5690 C   0  0  0  0  0  0  0  0  0  0  0  0
  -17.0280   -1.4290   -1.5390 C   0  0  0  0  0  0  0  0  0  0  0  0
  -18.4920   -1.2140   -1.8890 C   0  0  0  0  0  0  0  0  0  0  0  0
  -16.3160   -2.4170   -2.2030 C   0  0  0  0  0  0  0  0  0  0  0  0
  -14.9920   -2.6000   -1.8810 C   0  0  0  0  0  0  0  0  0  0  0  0
  -11.8840   -1.6900   -1.5230 C   0  0  0  0  0  0  0  0  0  0  0  0
  -10.5100   -1.9860   -1.1290 N   0  0  0  0  0  0  0  0  0  0  0  0
   -9.4170   -1.6200   -2.0330 C   0  0  0  0  0  0  0  0  0  0  0  0
   -8.6910   -2.8290   -2.6400 C   0  0  0  0  0  0  0  0  0  0  0  0
   -7.4240   -2.4120   -3.3960 C   0  0  0  0  0  0  0  0  0  0  0  0
   -6.6020   -3.3600   -4.0030 C   0  0  0  0  0  0  0  0  0  0  0  0
   -5.4520   -2.9730   -4.6890 C   0  0  0  0  0  0  0  0  0  0  0  0
   -5.1710   -1.6130   -4.7450 C   0  0  0  0  0  0  0  0  0  0  0  0
   -6.0260   -0.7120   -4.1180 C   0  0  0  0  0  0  0  0  0  0  0  0
   -7.1050   -1.1300   -3.4760 N   0  0  0  0  0  0  0  0  0  0  0  0
  -12.0760   -1.1630   -2.5660 O   0  0  0  0  0  0  0  0  0  0  0  0
  -18.9770   -2.2170   -2.6820 F   0  0  0  0  0  0  0  0  0  0  0  0
  -18.6230    0.0090   -2.4680 F   0  0  0  0  0  0  0  0  0  0  0  0
  -19.1730   -1.2180   -0.7410 F   0  0  0  0  0  0  0  0  0  0  0  0
  1  2  2  0  0  0  0
  2  3  1  0  0  0  0
  3  4  1  0  0  0  0
  4  5  2  0  0  0  0
  3  6  2  0  0  0  0
  6  7  1  0  0  0  0
  7  8  1  0  0  0  0
  8  9  2  0  0  0  0
  9 10  1  0  0  0  0
 10 11  2  0  0  0  0
 11 12  1  0  0  0  0
 11 13  1  0  0  0  0
  8 14  1  0  0  0  0
 13 14  2  0  0  0  0
  7 15  1  0  0  0  0
  2 16  1  0  0  0  0
 15 16  1  0  0  0  0
 16 17  1  0  0  0  0
 17 18  1  0  0  0  0
 18 19  1  0  0  0  0
 19 20  2  0  0  0  0
 20 21  1  0  0  0  0
 21 22  2  0  0  0  0
 22 23  1  0  0  0  0
 19 24  1  0  0  0  0
 23 24  2  0  0  0  0
 15 25  2  0  0  0  0
 12 26  1  0  0  0  0
 12 27  1  0  0  0  0
 12 28  1  0  0  0  0
M  END
$$$$
